PV_Scenarios/PV_combined/scenario_65_combined/PV_combined90per.txt
New PVSystem.PV_1 phases=1 bus1=G2000SO2200_N274207_sec_3.3 kV=0.24 kVA=9.3543 irradiance=1 Pmpp=7.7952 %cutin=0.1 %cutout=0.1
New PVSystem.PV_2 phases=1 bus1=G2000TL1200_N283789_sec_1.2 kV=0.24 kVA=4.0826 irradiance=1 Pmpp=3.4021 %cutin=0.1 %cutout=0.1
New PVSystem.PV_3 phases=1 bus1=G2000TN4400_N283873_sec_5.3 kV=0.24 kVA=9.48 irradiance=1 Pmpp=7.9 %cutin=0.1 %cutout=0.1
New PVSystem.PV_4 phases=1 bus1=G2000UK1100_N283753_sec_1.3 kV=0.24 kVA=3.12 irradiance=1 Pmpp=2.6 %cutin=0.1 %cutout=0.1
New PVSystem.PV_5 phases=1 bus1=G2000XJ7800_N283732_sec_1.2 kV=0.24 kVA=8.04 irradiance=1 Pmpp=6.7 %cutin=0.1 %cutout=0.1
New PVSystem.PV_6 phases=1 bus1=G2000XN9500_N283851_sec_3.3 kV=0.24 kVA=2.4 irradiance=1 Pmpp=2 %cutin=0.1 %cutout=0.1
New PVSystem.PV_7 phases=1 bus1=G2000XO7000_N283918_sec_3.3 kV=0.24 kVA=5.88 irradiance=1 Pmpp=4.9 %cutin=0.1 %cutout=0.1
New PVSystem.PV_8 phases=1 bus1=G2001RJ3400_N274458_sec_3.2 kV=0.24 kVA=10.44 irradiance=1 Pmpp=8.7 %cutin=0.1 %cutout=0.1
New PVSystem.PV_9 phases=1 bus1=G2001SH3700_N274411_sec_5.1 kV=0.24 kVA=6.12 irradiance=1 Pmpp=5.1 %cutin=0.1 %cutout=0.1
New PVSystem.PV_10 phases=1 bus1=G2001UJ6300_N284204_sec_1.2 kV=0.24 kVA=5.76 irradiance=1 Pmpp=4.8 %cutin=0.1 %cutout=0.1
New PVSystem.PV_11 phases=1 bus1=G2001VE0100_N284048_sec_2.3 kV=0.24 kVA=12 irradiance=1 Pmpp=10 %cutin=0.1 %cutout=0.1
New PVSystem.PV_12 phases=1 bus1=G2001VI5200_N284181_sec_1.2 kV=0.24 kVA=15.0076 irradiance=1 Pmpp=12.5063 %cutin=0.1 %cutout=0.1
New PVSystem.PV_13 phases=1 bus1=G2100AD9900_N283564_sec_2.3 kV=0.24 kVA=3.36 irradiance=1 Pmpp=2.8 %cutin=0.1 %cutout=0.1
New PVSystem.PV_14 phases=1 bus1=G2100AH6800_N283651_sec_6.3 kV=0.24 kVA=3.24 irradiance=1 Pmpp=2.7 %cutin=0.1 %cutout=0.1
New PVSystem.PV_15 phases=1 bus1=G2100BH3900_N283665_sec_5.3 kV=0.24 kVA=4.32 irradiance=1 Pmpp=3.6 %cutin=0.1 %cutout=0.1
New PVSystem.PV_16 phases=1 bus1=G2100BH6100_N283623_sec_4.3 kV=0.24 kVA=4.08 irradiance=1 Pmpp=3.4 %cutin=0.1 %cutout=0.1
New PVSystem.PV_17 phases=1 bus1=G2100BN6500_N283855_sec_1.3 kV=0.24 kVA=2.76 irradiance=1 Pmpp=2.3 %cutin=0.1 %cutout=0.1
New PVSystem.PV_18 phases=1 bus1=G2100BN9700_N283853_sec_13.3 kV=0.24 kVA=1.2 irradiance=1 Pmpp=1 %cutin=0.1 %cutout=0.1
New PVSystem.PV_19 phases=1 bus1=G2100CH7400_N283632_sec_15.3 kV=0.24 kVA=2.4 irradiance=1 Pmpp=2 %cutin=0.1 %cutout=0.1
New PVSystem.PV_20 phases=1 bus1=G2100CN4000_N283847_sec_9.3 kV=0.24 kVA=1.68 irradiance=1 Pmpp=1.4 %cutin=0.1 %cutout=0.1
New PVSystem.PV_21 phases=1 bus1=G2100DG3700_N283614_sec_1.3 kV=0.24 kVA=1.68 irradiance=1 Pmpp=1.4 %cutin=0.1 %cutout=0.1
New PVSystem.PV_22 phases=1 bus1=G2100DH9500_N292300_sec_6.3 kV=0.24 kVA=7.68 irradiance=1 Pmpp=6.4 %cutin=0.1 %cutout=0.1
New PVSystem.PV_23 phases=1 bus1=G2100DJ0100_N283721_sec_5.2 kV=0.24 kVA=9.2017 irradiance=1 Pmpp=7.6681 %cutin=0.1 %cutout=0.1
New PVSystem.PV_24 phases=1 bus1=G2100DN4800_N283861_sec_1.3 kV=0.24 kVA=1.8 irradiance=1 Pmpp=1.5 %cutin=0.1 %cutout=0.1
New PVSystem.PV_25 phases=1 bus1=G2100DN4800_N283861_sec_14.3 kV=0.24 kVA=2.52 irradiance=1 Pmpp=2.1 %cutin=0.1 %cutout=0.1
New PVSystem.PV_26 phases=1 bus1=G2100DN4800_N283861_sec_20.3 kV=0.24 kVA=2.28 irradiance=1 Pmpp=1.9 %cutin=0.1 %cutout=0.1
New PVSystem.PV_27 phases=1 bus1=G2100DN4800_N283861_sec_33.3 kV=0.24 kVA=0.72 irradiance=1 Pmpp=0.6 %cutin=0.1 %cutout=0.1
New PVSystem.PV_28 phases=1 bus1=G2100EK8800_N292347_sec_6.2 kV=0.24 kVA=6.48 irradiance=1 Pmpp=5.4 %cutin=0.1 %cutout=0.1
New PVSystem.PV_29 phases=1 bus1=G2100EM2500_N292390_sec_6.2 kV=0.24 kVA=11.4597 irradiance=1 Pmpp=9.5498 %cutin=0.1 %cutout=0.1
New PVSystem.PV_30 phases=1 bus1=G2100EO2100_N292498_sec_3.3 kV=0.24 kVA=1.2 irradiance=1 Pmpp=1 %cutin=0.1 %cutout=0.1
New PVSystem.PV_31 phases=3 conn = delta bus1=G2100FJ3800_N292380_sec_6.1.2.3 kV=0.48 kVA=5.88 irradiance=1 Pmpp=4.9 %cutin=0.1 %cutout=0.1
New PVSystem.PV_32 phases=1 bus1=G2100FK9800_N292385_sec_6.1 kV=0.24 kVA=6.36 irradiance=1 Pmpp=5.3 %cutin=0.1 %cutout=0.1
New PVSystem.PV_33 phases=1 bus1=G2100GJ1600_N292364_sec_2.1 kV=0.24 kVA=11.28 irradiance=1 Pmpp=9.4 %cutin=0.1 %cutout=0.1
New PVSystem.PV_34 phases=1 bus1=G2100GN7300_N292464_sec_3.1 kV=0.24 kVA=1.68 irradiance=1 Pmpp=1.4 %cutin=0.1 %cutout=0.1
New PVSystem.PV_35 phases=1 bus1=G2100HM3200_N292420_sec_5.3 kV=0.24 kVA=2.4 irradiance=1 Pmpp=2 %cutin=0.1 %cutout=0.1
New PVSystem.PV_36 phases=1 bus1=G2100HM9900_N292433_sec_4.3 kV=0.24 kVA=2.88 irradiance=1 Pmpp=2.4 %cutin=0.1 %cutout=0.1
New PVSystem.PV_37 phases=1 bus1=G2100HN5600_N292453_sec_42.3 kV=0.24 kVA=3 irradiance=1 Pmpp=2.5 %cutin=0.1 %cutout=0.1
New PVSystem.PV_38 phases=1 bus1=G2100IN2700_N292475_sec_30.3 kV=0.24 kVA=0.96 irradiance=1 Pmpp=0.8 %cutin=0.1 %cutout=0.1
New PVSystem.PV_39 phases=1 bus1=G2100IN2700_N292475_sec_34.3 kV=0.24 kVA=2.4 irradiance=1 Pmpp=2 %cutin=0.1 %cutout=0.1
New PVSystem.PV_40 phases=3 conn = delta bus1=G2100KO2700_N300582_sec_1.1.2.3 kV=0.48 kVA=47.4 irradiance=1 Pmpp=39.5 %cutin=0.1 %cutout=0.1
New PVSystem.PV_41 phases=1 bus1=G2100NM6600_N300513_sec_2.1 kV=0.24 kVA=3.84 irradiance=1 Pmpp=3.2 %cutin=0.1 %cutout=0.1
New PVSystem.PV_42 phases=1 bus1=G2100ON6900_N300568_sec_1.1 kV=0.24 kVA=3.6 irradiance=1 Pmpp=3 %cutin=0.1 %cutout=0.1
New PVSystem.PV_43 phases=1 bus1=G2100ON7300_N300541_sec_2.1 kV=0.24 kVA=3.6 irradiance=1 Pmpp=3 %cutin=0.1 %cutout=0.1
New PVSystem.PV_44 phases=1 bus1=G2100ON7300_N300541_sec_3.1 kV=0.24 kVA=7.32 irradiance=1 Pmpp=6.1 %cutin=0.1 %cutout=0.1
New PVSystem.PV_45 phases=1 bus1=G2100ON7400_N300547_sec_4.1 kV=0.24 kVA=3.6 irradiance=1 Pmpp=3 %cutin=0.1 %cutout=0.1
New PVSystem.PV_46 phases=1 bus1=G2100OO0200_N300573_sec_3.1 kV=0.24 kVA=3.12 irradiance=1 Pmpp=2.6 %cutin=0.1 %cutout=0.1
New PVSystem.PV_47 phases=1 bus1=G2100PN4000_N300544_sec_2.1 kV=0.24 kVA=3.12 irradiance=1 Pmpp=2.6 %cutin=0.1 %cutout=0.1
New PVSystem.PV_48 phases=1 bus1=G2100PN4000_N300544_sec_4.1 kV=0.24 kVA=1.32 irradiance=1 Pmpp=1.1 %cutin=0.1 %cutout=0.1
New PVSystem.PV_49 phases=1 bus1=G2100PO1400_N300580_sec_1.1 kV=0.24 kVA=5.16 irradiance=1 Pmpp=4.3 %cutin=0.1 %cutout=0.1
New PVSystem.PV_50 phases=1 bus1=G2100RM5200_N312343_sec_2.3 kV=0.24 kVA=3.36 irradiance=1 Pmpp=2.8 %cutin=0.1 %cutout=0.1
New PVSystem.PV_51 phases=1 bus1=G2100RN1800_N300557_sec_7.3 kV=0.24 kVA=4.32 irradiance=1 Pmpp=3.6 %cutin=0.1 %cutout=0.1
New PVSystem.PV_52 phases=1 bus1=G2100RO0400_N300576_sec_6.3 kV=0.24 kVA=3.24 irradiance=1 Pmpp=2.7 %cutin=0.1 %cutout=0.1
New PVSystem.PV_53 phases=1 bus1=G2100SM8900_N312424_sec_3.2 kV=0.24 kVA=11.6477 irradiance=1 Pmpp=9.7065 %cutin=0.1 %cutout=0.1
New PVSystem.PV_54 phases=1 bus1=G2100SM8900_N312424_sec_5.2 kV=0.24 kVA=6 irradiance=1 Pmpp=5 %cutin=0.1 %cutout=0.1
New PVSystem.PV_55 phases=1 bus1=G2101DC0100_N283946_sec_1.1 kV=0.24 kVA=7.68 irradiance=1 Pmpp=6.4 %cutin=0.1 %cutout=0.1
New PVSystem.PV_56 phases=1 bus1=G2101EC8400_N292647_sec_4.1 kV=0.24 kVA=3.84 irradiance=1 Pmpp=3.2 %cutin=0.1 %cutout=0.1
New PVSystem.PV_57 phases=1 bus1=G2101EG5500_N292730_sec_3.2 kV=0.24 kVA=10.8 irradiance=1 Pmpp=9 %cutin=0.1 %cutout=0.1
New PVSystem.PV_58 phases=1 bus1=G2101EO2200_N292846_sec_1.1 kV=0.24 kVA=7.32 irradiance=1 Pmpp=6.1 %cutin=0.1 %cutout=0.1
New PVSystem.PV_59 phases=1 bus1=G2101FC8400_N292612_sec_7.2 kV=0.24 kVA=3 irradiance=1 Pmpp=2.5 %cutin=0.1 %cutout=0.1
New PVSystem.PV_60 phases=1 bus1=G2101FC8400_N292612_sec_9.2 kV=0.24 kVA=5.28 irradiance=1 Pmpp=4.4 %cutin=0.1 %cutout=0.1
New PVSystem.PV_61 phases=1 bus1=G2101FC8400_N292612_sec_13.2 kV=0.24 kVA=6 irradiance=1 Pmpp=5 %cutin=0.1 %cutout=0.1
New PVSystem.PV_62 phases=1 bus1=G2101FM7500_N292827_sec_3.2 kV=0.24 kVA=10.37 irradiance=1 Pmpp=8.6417 %cutin=0.1 %cutout=0.1
New PVSystem.PV_63 phases=3 conn = delta bus1=G2101GA6800_N292554_sec_1.1.2.3 kV=0.48 kVA=20.52 irradiance=1 Pmpp=17.1 %cutin=0.1 %cutout=0.1
New PVSystem.PV_64 phases=1 bus1=G2101GD1300_N292637_sec_15.1 kV=0.24 kVA=3 irradiance=1 Pmpp=2.5 %cutin=0.1 %cutout=0.1
New PVSystem.PV_65 phases=1 bus1=G2101GD1300_N292637_sec_20.1 kV=0.24 kVA=2.28 irradiance=1 Pmpp=1.9 %cutin=0.1 %cutout=0.1
New PVSystem.PV_66 phases=1 bus1=G2101GJ7800_N292798_sec_1.2 kV=0.24 kVA=12.72 irradiance=1 Pmpp=10.6 %cutin=0.1 %cutout=0.1
New PVSystem.PV_67 phases=1 bus1=G2101HD2500_N292652_sec_1.1 kV=0.24 kVA=2.88 irradiance=1 Pmpp=2.4 %cutin=0.1 %cutout=0.1
New PVSystem.PV_68 phases=1 bus1=G2101HD3500_N292652_sec_4.1 kV=0.24 kVA=3.96 irradiance=1 Pmpp=3.3 %cutin=0.1 %cutout=0.1
New PVSystem.PV_69 phases=1 bus1=G2101IJ8600_N292802_sec_1.3 kV=0.24 kVA=3.96 irradiance=1 Pmpp=3.3 %cutin=0.1 %cutout=0.1
New PVSystem.PV_70 phases=1 bus1=G2101JG1900_N292717_sec_1.1 kV=0.24 kVA=3.96 irradiance=1 Pmpp=3.3 %cutin=0.1 %cutout=0.1
New PVSystem.PV_71 phases=1 bus1=G2101KA0900_N300672_sec_11.1 kV=0.24 kVA=2.64 irradiance=1 Pmpp=2.2 %cutin=0.1 %cutout=0.1
New PVSystem.PV_72 phases=1 bus1=G2101KA6200_N300623_sec_17.1 kV=0.24 kVA=1.92 irradiance=1 Pmpp=1.6 %cutin=0.1 %cutout=0.1
New PVSystem.PV_73 phases=1 bus1=G2101PB7100_N300674_sec_7.1 kV=0.24 kVA=6.96 irradiance=1 Pmpp=5.8 %cutin=0.1 %cutout=0.1
New PVSystem.PV_74 phases=1 bus1=G2101RB6300_N312566_sec_3.1 kV=0.24 kVA=5.16 irradiance=1 Pmpp=4.3 %cutin=0.1 %cutout=0.1
New PVSystem.PV_75 phases=1 bus1=G2101SB1800_N312602_sec_3.1 kV=0.24 kVA=3.84 irradiance=1 Pmpp=3.2 %cutin=0.1 %cutout=0.1
New PVSystem.PV_76 phases=1 bus1=G2102CF4600_N284377_sec_1.1 kV=0.24 kVA=0.72 irradiance=1 Pmpp=0.6 %cutin=0.1 %cutout=0.1
New PVSystem.PV_77 phases=1 bus1=G2102DA9200_N284319_sec_1.1 kV=0.24 kVA=11.28 irradiance=1 Pmpp=9.4 %cutin=0.1 %cutout=0.1
New PVSystem.PV_78 phases=1 bus1=G2102FF3700_N284394_sec_1.1 kV=0.24 kVA=8.16 irradiance=1 Pmpp=6.8 %cutin=0.1 %cutout=0.1
New PVSystem.PV_79 phases=1 bus1=G2000UH9400_N283633_sec_2.3 kV=0.24 kVA=3.12 irradiance=1 Pmpp=2.6 %cutin=0.1 %cutout=0.1
New PVSystem.PV_80 phases=1 bus1=G2000UJ0800_N283722_sec_2.3 kV=0.24 kVA=1.92 irradiance=1 Pmpp=1.6 %cutin=0.1 %cutout=0.1
New PVSystem.PV_81 phases=1 bus1=G2000UJ6500_N283747_sec_1.2 kV=0.24 kVA=6.3524 irradiance=1 Pmpp=5.2937 %cutin=0.1 %cutout=0.1
New PVSystem.PV_82 phases=1 bus1=G2000WO8800_N283892_sec_1.3 kV=0.24 kVA=5.16 irradiance=1 Pmpp=4.3 %cutin=0.1 %cutout=0.1
New PVSystem.PV_83 phases=1 bus1=G2000XH7500_N283636_sec_1.3 kV=0.24 kVA=2.88 irradiance=1 Pmpp=2.4 %cutin=0.1 %cutout=0.1
New PVSystem.PV_84 phases=1 bus1=G2001SB8200_N274258_sec_5.3 kV=0.24 kVA=4.2017 irradiance=1 Pmpp=3.5014 %cutin=0.1 %cutout=0.1
New PVSystem.PV_85 phases=1 bus1=G2001UD7700_N284028_sec_8.3 kV=0.24 kVA=1.44 irradiance=1 Pmpp=1.2 %cutin=0.1 %cutout=0.1
New PVSystem.PV_86 phases=1 bus1=G2001UJ5100_N284204_sec_4.2 kV=0.24 kVA=0 irradiance=1 Pmpp=0 %cutin=0.1 %cutout=0.1
New PVSystem.PV_87 phases=1 bus1=G2001VB5300_N283949_sec_7.3 kV=0.24 kVA=3 irradiance=1 Pmpp=2.5 %cutin=0.1 %cutout=0.1
New PVSystem.PV_88 phases=1 bus1=G2001VF9300_N284100_sec_2.3 kV=0.24 kVA=7.68 irradiance=1 Pmpp=6.4 %cutin=0.1 %cutout=0.1
New PVSystem.PV_89 phases=1 bus1=G2001WC3900_N284043_sec_3.3 kV=0.24 kVA=3.36 irradiance=1 Pmpp=2.8 %cutin=0.1 %cutout=0.1
New PVSystem.PV_90 phases=1 bus1=G2001WC3900_N284043_sec_6.3 kV=0.24 kVA=4.08 irradiance=1 Pmpp=3.4 %cutin=0.1 %cutout=0.1
New PVSystem.PV_91 phases=1 bus1=G2001XF2300_N284087_sec_1.1 kV=0.24 kVA=7.68 irradiance=1 Pmpp=6.4 %cutin=0.1 %cutout=0.1
New PVSystem.PV_92 phases=1 bus1=G2001XJ8800_N284203_sec_2.3 kV=0.24 kVA=6 irradiance=1 Pmpp=5 %cutin=0.1 %cutout=0.1
New PVSystem.PV_93 phases=1 bus1=G2002AF2300_N284383_sec_4.1 kV=0.24 kVA=1.44 irradiance=1 Pmpp=1.2 %cutin=0.1 %cutout=0.1
New PVSystem.PV_94 phases=1 bus1=G2100AK4600_N283751_sec_1.2 kV=0.24 kVA=6.72 irradiance=1 Pmpp=5.6 %cutin=0.1 %cutout=0.1
New PVSystem.PV_95 phases=1 bus1=G2100BE8900_N283564_sec_1.3 kV=0.24 kVA=6.6 irradiance=1 Pmpp=5.5 %cutin=0.1 %cutout=0.1
New PVSystem.PV_96 phases=1 bus1=G2100BI5900_N283697_sec_2.1 kV=0.24 kVA=4.56 irradiance=1 Pmpp=3.8 %cutin=0.1 %cutout=0.1
New PVSystem.PV_97 phases=1 bus1=G2100CK4000_N283780_sec_5.2 kV=0.24 kVA=6 irradiance=1 Pmpp=5 %cutin=0.1 %cutout=0.1
New PVSystem.PV_98 phases=1 bus1=G2100CN9200_N283841_sec_2.3 kV=0.24 kVA=1.44 irradiance=1 Pmpp=1.2 %cutin=0.1 %cutout=0.1
New PVSystem.PV_99 phases=1 bus1=G2100DG1300_N283601_sec_3.3 kV=0.24 kVA=2.28 irradiance=1 Pmpp=1.9 %cutin=0.1 %cutout=0.1
New PVSystem.PV_100 phases=1 bus1=G2100DM3200_N283818_sec_4.3 kV=0.24 kVA=6 irradiance=1 Pmpp=5 %cutin=0.1 %cutout=0.1
New PVSystem.PV_101 phases=1 bus1=G2100DN4800_N283861_sec_34.3 kV=0.24 kVA=1.56 irradiance=1 Pmpp=1.3 %cutin=0.1 %cutout=0.1
New PVSystem.PV_102 phases=1 bus1=G2100DN4800_N283861_sec_44.3 kV=0.24 kVA=3.8286 irradiance=1 Pmpp=3.1905 %cutin=0.1 %cutout=0.1
New PVSystem.PV_103 phases=1 bus1=G2100EH3700_N292308_sec_5.1 kV=0.24 kVA=4.08 irradiance=1 Pmpp=3.4 %cutin=0.1 %cutout=0.1
New PVSystem.PV_104 phases=1 bus1=G2100EN7100_N292449_sec_1.3 kV=0.24 kVA=2.88 irradiance=1 Pmpp=2.4 %cutin=0.1 %cutout=0.1
New PVSystem.PV_105 phases=1 bus1=G2100EO2100_N292498_sec_8.3 kV=0.24 kVA=2.88 irradiance=1 Pmpp=2.4 %cutin=0.1 %cutout=0.1
New PVSystem.PV_106 phases=1 bus1=G2100EO2100_N292498_sec_16.3 kV=0.24 kVA=2.28 irradiance=1 Pmpp=1.9 %cutin=0.1 %cutout=0.1
New PVSystem.PV_107 phases=3 conn = delta bus1=G2100FE2600_N292234_sec_5.1.2.3 kV=0.48 kVA=37.32 irradiance=1 Pmpp=31.1 %cutin=0.1 %cutout=0.1
New PVSystem.PV_108 phases=3 conn = delta bus1=G2100FE2600_N292234_sec_14.1.2.3 kV=0.48 kVA=17.88 irradiance=1 Pmpp=14.9 %cutin=0.1 %cutout=0.1
New PVSystem.PV_109 phases=3 conn = delta bus1=G2100FJ3800_N292380_sec_7.1.2.3 kV=0.48 kVA=15.24 irradiance=1 Pmpp=12.7 %cutin=0.1 %cutout=0.1
New PVSystem.PV_110 phases=3 conn = delta bus1=G2100FJ3800_N292380_sec_16.1.2.3 kV=0.48 kVA=29.76 irradiance=1 Pmpp=24.8 %cutin=0.1 %cutout=0.1
New PVSystem.PV_111 phases=3 conn = delta bus1=G2100FJ4400_N292396_sec_7.1.2.3 kV=0.48 kVA=53.4 irradiance=1 Pmpp=44.5 %cutin=0.1 %cutout=0.1
New PVSystem.PV_112 phases=1 bus1=G2100FO1600_N292502_sec_8.3 kV=0.24 kVA=2.88 irradiance=1 Pmpp=2.4 %cutin=0.1 %cutout=0.1
New PVSystem.PV_113 phases=3 conn = delta bus1=G2100GF1700_N292259_sec_1.1.2.3 kV=0.48 kVA=130.4984 irradiance=1 Pmpp=108.7486 %cutin=0.1 %cutout=0.1
New PVSystem.PV_114 phases=3 conn = delta bus1=G2100GM1700_N292446_sec_2.1.2.3 kV=0.48 kVA=24.84 irradiance=1 Pmpp=20.7 %cutin=0.1 %cutout=0.1
New PVSystem.PV_115 phases=1 bus1=G2100GN2400_N292466_sec_1.1 kV=0.24 kVA=3.72 irradiance=1 Pmpp=3.1 %cutin=0.1 %cutout=0.1
New PVSystem.PV_116 phases=1 bus1=G2100HM3200_N292420_sec_3.3 kV=0.24 kVA=1.2 irradiance=1 Pmpp=1 %cutin=0.1 %cutout=0.1
New PVSystem.PV_117 phases=1 bus1=G2100HM3200_N292420_sec_11.3 kV=0.24 kVA=0.6 irradiance=1 Pmpp=0.5 %cutin=0.1 %cutout=0.1
New PVSystem.PV_118 phases=1 bus1=G2100HM3200_N292420_sec_20.3 kV=0.24 kVA=0.36 irradiance=1 Pmpp=0.3 %cutin=0.1 %cutout=0.1
New PVSystem.PV_119 phases=1 bus1=G2100HN5600_N292453_sec_43.3 kV=0.24 kVA=2.64 irradiance=1 Pmpp=2.2 %cutin=0.1 %cutout=0.1
New PVSystem.PV_120 phases=1 bus1=G2100IN2700_N292475_sec_4.3 kV=0.24 kVA=2.28 irradiance=1 Pmpp=1.9 %cutin=0.1 %cutout=0.1
New PVSystem.PV_121 phases=1 bus1=G2100NJ7400_N300463_sec_3.1 kV=0.24 kVA=1.08 irradiance=1 Pmpp=0.9 %cutin=0.1 %cutout=0.1
New PVSystem.PV_122 phases=1 bus1=G2100NM6600_N300513_sec_7.1 kV=0.24 kVA=4.32 irradiance=1 Pmpp=3.6 %cutin=0.1 %cutout=0.1
New PVSystem.PV_123 phases=1 bus1=G2100OK3900_N300495_sec_1.1 kV=0.24 kVA=5.16 irradiance=1 Pmpp=4.3 %cutin=0.1 %cutout=0.1
New PVSystem.PV_124 phases=1 bus1=G2100ON6900_N300568_sec_3.1 kV=0.24 kVA=5.16 irradiance=1 Pmpp=4.3 %cutin=0.1 %cutout=0.1
New PVSystem.PV_125 phases=1 bus1=G2100OO0200_N300573_sec_5.1 kV=0.24 kVA=6.84 irradiance=1 Pmpp=5.7 %cutin=0.1 %cutout=0.1
New PVSystem.PV_126 phases=1 bus1=G2100QO0700_N300609_sec_1.1 kV=0.24 kVA=5.4 irradiance=1 Pmpp=4.5 %cutin=0.1 %cutout=0.1
New PVSystem.PV_127 phases=1 bus1=G2100QP9600_N300587_sec_4.2 kV=0.24 kVA=3.72 irradiance=1 Pmpp=3.1 %cutin=0.1 %cutout=0.1
New PVSystem.PV_128 phases=1 bus1=G2100RM5200_N312343_sec_1.3 kV=0.24 kVA=2.88 irradiance=1 Pmpp=2.4 %cutin=0.1 %cutout=0.1
New PVSystem.PV_129 phases=1 bus1=G2100RN1800_N300557_sec_2.3 kV=0.24 kVA=2.76 irradiance=1 Pmpp=2.3 %cutin=0.1 %cutout=0.1
New PVSystem.PV_130 phases=1 bus1=G2100SL6900_N312340_sec_2.2 kV=0.24 kVA=8.8265 irradiance=1 Pmpp=7.3554 %cutin=0.1 %cutout=0.1
New PVSystem.PV_131 phases=1 bus1=G2100SO3700_N312462_sec_4.3 kV=0.24 kVA=2.88 irradiance=1 Pmpp=2.4 %cutin=0.1 %cutout=0.1
New PVSystem.PV_132 phases=1 bus1=G2101BL8500_N284244_sec_3.1 kV=0.24 kVA=6.84 irradiance=1 Pmpp=5.7 %cutin=0.1 %cutout=0.1
New PVSystem.PV_133 phases=1 bus1=G2101CB7700_N283923_sec_1.1 kV=0.24 kVA=5.52 irradiance=1 Pmpp=4.6 %cutin=0.1 %cutout=0.1
New PVSystem.PV_134 phases=1 bus1=G2101DB9200_N283929_sec_3.1 kV=0.24 kVA=5.16 irradiance=1 Pmpp=4.3 %cutin=0.1 %cutout=0.1
New PVSystem.PV_135 phases=1 bus1=G2101DD1900_N284035_sec_3.1 kV=0.24 kVA=0.6 irradiance=1 Pmpp=0.5 %cutin=0.1 %cutout=0.1
New PVSystem.PV_136 phases=1 bus1=G2101EG5500_N292730_sec_4.2 kV=0.24 kVA=10.8 irradiance=1 Pmpp=9 %cutin=0.1 %cutout=0.1
New PVSystem.PV_137 phases=1 bus1=G2101EM6600_N292838_sec_2.2 kV=0.24 kVA=5.28 irradiance=1 Pmpp=4.4 %cutin=0.1 %cutout=0.1
New PVSystem.PV_138 phases=1 bus1=G2101FC9500_N292618_sec_20.1 kV=0.24 kVA=3.6 irradiance=1 Pmpp=3 %cutin=0.1 %cutout=0.1
New PVSystem.PV_139 phases=1 bus1=G2101GB2100_N292559_sec_1.2 kV=0.24 kVA=1.2 irradiance=1 Pmpp=1 %cutin=0.1 %cutout=0.1
New PVSystem.PV_140 phases=1 bus1=G2101GC3200_N292623_sec_20.1 kV=0.24 kVA=3.72 irradiance=1 Pmpp=3.1 %cutin=0.1 %cutout=0.1
New PVSystem.PV_141 phases=1 bus1=G2101GC3400_N292625_sec_17.1 kV=0.24 kVA=7.2 irradiance=1 Pmpp=6 %cutin=0.1 %cutout=0.1
New PVSystem.PV_142 phases=1 bus1=G2101GC9700_N292633_sec_11.1 kV=0.24 kVA=2.64 irradiance=1 Pmpp=2.2 %cutin=0.1 %cutout=0.1
New PVSystem.PV_143 phases=1 bus1=G2101GD6200_N292642_sec_4.1 kV=0.24 kVA=1.44 irradiance=1 Pmpp=1.2 %cutin=0.1 %cutout=0.1
New PVSystem.PV_144 phases=1 bus1=G2101GJ5200_N292778_sec_3.2 kV=0.24 kVA=11.04 irradiance=1 Pmpp=9.2 %cutin=0.1 %cutout=0.1
New PVSystem.PV_145 phases=1 bus1=G2101HD2500_N292652_sec_8.1 kV=0.24 kVA=1.44 irradiance=1 Pmpp=1.2 %cutin=0.1 %cutout=0.1
New PVSystem.PV_146 phases=1 bus1=G2101HD3500_N292652_sec_6.1 kV=0.24 kVA=3.48 irradiance=1 Pmpp=2.9 %cutin=0.1 %cutout=0.1
New PVSystem.PV_147 phases=1 bus1=G2101HK5000_N292837_sec_1.3 kV=0.24 kVA=6.9248 irradiance=1 Pmpp=5.7707 %cutin=0.1 %cutout=0.1
New PVSystem.PV_148 phases=1 bus1=G2101IJ4900_N292825_sec_1.3 kV=0.24 kVA=2.28 irradiance=1 Pmpp=1.9 %cutin=0.1 %cutout=0.1
New PVSystem.PV_149 phases=1 bus1=G2101JF1200_N292702_sec_4.1 kV=0.24 kVA=3.48 irradiance=1 Pmpp=2.9 %cutin=0.1 %cutout=0.1
New PVSystem.PV_150 phases=1 bus1=G2101JJ4900_N292802_sec_2.3 kV=0.24 kVA=5.88 irradiance=1 Pmpp=4.9 %cutin=0.1 %cutout=0.1
New PVSystem.PV_151 phases=1 bus1=G2101KA0900_N300672_sec_6.1 kV=0.24 kVA=3.24 irradiance=1 Pmpp=2.7 %cutin=0.1 %cutout=0.1
New PVSystem.PV_152 phases=1 bus1=G2101OA5600_N300661_sec_2.1 kV=0.24 kVA=4.44 irradiance=1 Pmpp=3.7 %cutin=0.1 %cutout=0.1
New PVSystem.PV_153 phases=1 bus1=G2101PB5100_N300681_sec_6.1 kV=0.24 kVA=4.44 irradiance=1 Pmpp=3.7 %cutin=0.1 %cutout=0.1
New PVSystem.PV_154 phases=1 bus1=G2101QC7600_N300750_sec_5.3 kV=0.24 kVA=2.88 irradiance=1 Pmpp=2.4 %cutin=0.1 %cutout=0.1
New PVSystem.PV_155 phases=1 bus1=G2102AC6800_N284336_sec_3.1 kV=0.24 kVA=12.72 irradiance=1 Pmpp=10.6 %cutin=0.1 %cutout=0.1
New PVSystem.PV_156 phases=1 bus1=G2000SK5500_N274137_sec_7.2 kV=0.24 kVA=8.4 irradiance=1 Pmpp=7 %cutin=0.1 %cutout=0.1
New PVSystem.PV_157 phases=1 bus1=G2000SO2200_N274207_sec_2.3 kV=0.24 kVA=5.16 irradiance=1 Pmpp=4.3 %cutin=0.1 %cutout=0.1
New PVSystem.PV_158 phases=1 bus1=G2000VH9500_N283675_sec_2.2 kV=0.24 kVA=6 irradiance=1 Pmpp=5 %cutin=0.1 %cutout=0.1
New PVSystem.PV_159 phases=1 bus1=G2000WM3200_N283819_sec_3.3 kV=0.24 kVA=3.36 irradiance=1 Pmpp=2.8 %cutin=0.1 %cutout=0.1
New PVSystem.PV_160 phases=1 bus1=G2000XL0800_N283812_sec_3.1 kV=0.24 kVA=4.56 irradiance=1 Pmpp=3.8 %cutin=0.1 %cutout=0.1
New PVSystem.PV_161 phases=1 bus1=G2000XM1800_N283834_sec_3.3 kV=0.24 kVA=4.08 irradiance=1 Pmpp=3.4 %cutin=0.1 %cutout=0.1
New PVSystem.PV_162 phases=1 bus1=G2000XO7000_N283918_sec_5.3 kV=0.24 kVA=4.92 irradiance=1 Pmpp=4.1 %cutin=0.1 %cutout=0.1
New PVSystem.PV_163 phases=1 bus1=G2001QI3100_N274419_sec_1.2 kV=0.24 kVA=5.5945 irradiance=1 Pmpp=4.6621 %cutin=0.1 %cutout=0.1
New PVSystem.PV_164 phases=1 bus1=G2001QO2100_N274563_sec_4.2 kV=0.24 kVA=6.72 irradiance=1 Pmpp=5.6 %cutin=0.1 %cutout=0.1
New PVSystem.PV_165 phases=1 bus1=G2001RH4100_N274394_sec_3.2 kV=0.24 kVA=8.6292 irradiance=1 Pmpp=7.191 %cutin=0.1 %cutout=0.1
New PVSystem.PV_166 phases=1 bus1=G2001RJ9700_N274469_sec_3.2 kV=0.24 kVA=5.76 irradiance=1 Pmpp=4.8 %cutin=0.1 %cutout=0.1
New PVSystem.PV_167 phases=1 bus1=G2001RL0800_N274521_sec_3.2 kV=0.24 kVA=0.84 irradiance=1 Pmpp=0.7 %cutin=0.1 %cutout=0.1
New PVSystem.PV_168 phases=1 bus1=G2001TE3200_N284042_sec_2.3 kV=0.24 kVA=5.76 irradiance=1 Pmpp=4.8 %cutin=0.1 %cutout=0.1
New PVSystem.PV_169 phases=1 bus1=G2001UB2100_N283965_sec_4.3 kV=0.24 kVA=5.4 irradiance=1 Pmpp=4.5 %cutin=0.1 %cutout=0.1
New PVSystem.PV_170 phases=1 bus1=G2001UK8700_N284232_sec_3.2 kV=0.24 kVA=10.8 irradiance=1 Pmpp=9 %cutin=0.1 %cutout=0.1
New PVSystem.PV_171 phases=1 bus1=G2001VD8000_N283989_sec_1.3 kV=0.24 kVA=4.44 irradiance=1 Pmpp=3.7 %cutin=0.1 %cutout=0.1
New PVSystem.PV_172 phases=1 bus1=G2001WB8800_N283948_sec_4.3 kV=0.24 kVA=5.4 irradiance=1 Pmpp=4.5 %cutin=0.1 %cutout=0.1
New PVSystem.PV_173 phases=1 bus1=G2001WC3900_N284043_sec_1.3 kV=0.24 kVA=1.2 irradiance=1 Pmpp=1 %cutin=0.1 %cutout=0.1
New PVSystem.PV_174 phases=1 bus1=G2001WJ8500_N284214_sec_1.3 kV=0.24 kVA=12.84 irradiance=1 Pmpp=10.7 %cutin=0.1 %cutout=0.1
New PVSystem.PV_175 phases=1 bus1=G2001XA3300_N283909_sec_2.3 kV=0.24 kVA=7.1259 irradiance=1 Pmpp=5.9383 %cutin=0.1 %cutout=0.1
New PVSystem.PV_176 phases=1 bus1=G2100AM9800_N283829_sec_3.1 kV=0.24 kVA=4.08 irradiance=1 Pmpp=3.4 %cutin=0.1 %cutout=0.1
New PVSystem.PV_177 phases=1 bus1=G2100BH3900_N283665_sec_8.3 kV=0.24 kVA=2.2663 irradiance=1 Pmpp=1.8886 %cutin=0.1 %cutout=0.1
New PVSystem.PV_178 phases=1 bus1=G2100BL8300_N283778_sec_3.1 kV=0.24 kVA=4.56 irradiance=1 Pmpp=3.8 %cutin=0.1 %cutout=0.1
New PVSystem.PV_179 phases=1 bus1=G2100BN9700_N283853_sec_8.3 kV=0.24 kVA=2.76 irradiance=1 Pmpp=2.3 %cutin=0.1 %cutout=0.1
New PVSystem.PV_180 phases=1 bus1=G2100CH1800_N1385522_sec_5.3 kV=0.24 kVA=3.12 irradiance=1 Pmpp=2.6 %cutin=0.1 %cutout=0.1
New PVSystem.PV_181 phases=1 bus1=G2100CH7400_N283632_sec_1.3 kV=0.24 kVA=2.28 irradiance=1 Pmpp=1.9 %cutin=0.1 %cutout=0.1
New PVSystem.PV_182 phases=1 bus1=G2100CI1500_N283687_sec_1.2 kV=0.24 kVA=4.08 irradiance=1 Pmpp=3.4 %cutin=0.1 %cutout=0.1
New PVSystem.PV_183 phases=1 bus1=G2100CI1500_N283687_sec_3.2 kV=0.24 kVA=4.5617 irradiance=1 Pmpp=3.8014 %cutin=0.1 %cutout=0.1
New PVSystem.PV_184 phases=1 bus1=G2100DJ7200_N292334_sec_4.2 kV=0.24 kVA=7.4907 irradiance=1 Pmpp=6.2422 %cutin=0.1 %cutout=0.1
New PVSystem.PV_185 phases=1 bus1=G2100DN4800_N283861_sec_32.3 kV=0.24 kVA=3 irradiance=1 Pmpp=2.5 %cutin=0.1 %cutout=0.1
New PVSystem.PV_186 phases=1 bus1=G2100DO7000_N283865_sec_2.3 kV=0.24 kVA=2.88 irradiance=1 Pmpp=2.4 %cutin=0.1 %cutout=0.1
New PVSystem.PV_187 phases=1 bus1=G2100EH3700_N292308_sec_6.1 kV=0.24 kVA=3.12 irradiance=1 Pmpp=2.6 %cutin=0.1 %cutout=0.1
New PVSystem.PV_188 phases=1 bus1=G2100EK2800_N292334_sec_3.2 kV=0.24 kVA=5.76 irradiance=1 Pmpp=4.8 %cutin=0.1 %cutout=0.1
New PVSystem.PV_189 phases=1 bus1=G2100EM2500_N292390_sec_2.2 kV=0.24 kVA=6.24 irradiance=1 Pmpp=5.2 %cutin=0.1 %cutout=0.1
New PVSystem.PV_190 phases=1 bus1=G2100EN2200_N292457_sec_4.3 kV=0.24 kVA=1.32 irradiance=1 Pmpp=1.1 %cutin=0.1 %cutout=0.1
New PVSystem.PV_191 phases=1 bus1=G2100EO2100_N292498_sec_7.3 kV=0.24 kVA=2.04 irradiance=1 Pmpp=1.7 %cutin=0.1 %cutout=0.1
New PVSystem.PV_192 phases=1 bus1=G2100FK5800_N292373_sec_6.2 kV=0.24 kVA=3.4164 irradiance=1 Pmpp=2.847 %cutin=0.1 %cutout=0.1
New PVSystem.PV_193 phases=1 bus1=G2100FL3500_N292410_sec_8.2 kV=0.24 kVA=1.32 irradiance=1 Pmpp=1.1 %cutin=0.1 %cutout=0.1
New PVSystem.PV_194 phases=1 bus1=G2100GM9700_N292423_sec_31.3 kV=0.24 kVA=0.36 irradiance=1 Pmpp=0.3 %cutin=0.1 %cutout=0.1
New PVSystem.PV_195 phases=1 bus1=G2100GN4300_N292461_sec_4.1 kV=0.24 kVA=2.64 irradiance=1 Pmpp=2.2 %cutin=0.1 %cutout=0.1
New PVSystem.PV_196 phases=1 bus1=G2100GO6100_N292504_sec_7.1 kV=0.24 kVA=6.6 irradiance=1 Pmpp=5.5 %cutin=0.1 %cutout=0.1
New PVSystem.PV_197 phases=3 conn = delta bus1=G2100GO7200_N292517_sec_8.1.2.3 kV=0.48 kVA=22.56 irradiance=1 Pmpp=18.8 %cutin=0.1 %cutout=0.1
New PVSystem.PV_198 phases=1 bus1=G2100HM9900_N292433_sec_5.3 kV=0.24 kVA=4.7269 irradiance=1 Pmpp=3.9391 %cutin=0.1 %cutout=0.1
New PVSystem.PV_199 phases=1 bus1=G2100HM9900_N292433_sec_37.3 kV=0.24 kVA=4.32 irradiance=1 Pmpp=3.6 %cutin=0.1 %cutout=0.1
New PVSystem.PV_200 phases=1 bus1=G2100HN5600_N292453_sec_67.3 kV=0.24 kVA=1.32 irradiance=1 Pmpp=1.1 %cutin=0.1 %cutout=0.1
...
